Circuit: * C:\Users\gauti\OneDrive\Documents\MATLAB\cmi55.asc

Unknown node in .ic card: "vp" -- ignoring
Unknown node in .ic card: "q0" -- ignoring
Unknown node in .ic card: "q1" -- ignoring
Unknown node in .ic card: "d0" -- ignoring
Unknown node in .ic card: "d1" -- ignoring
Per .tran options, skipping operating point for transient analysis.

Date: Sun Nov 21 09:36:36 2021
Total elapsed time: 0.354 seconds.

tnom = 27
temp = 27
method = modified trap
totiter = 48187
traniter = 48187
tranpoints = 17706
accept = 13562
rejected = 4144
matrix size = 44
fillins = 0
solver = Normal
Matrix Compiler1: 1.33 KB object code size  0.3/0.2/[0.1]
Matrix Compiler2: 2.50 KB object code size  0.2/0.4/[0.1]

