Circuit: * C:\Users\gauti\Documents\MATLAB\cmi_11b_prbs.asc

Unknown node in .ic card: "q0" -- ignoring
Unknown node in .ic card: "q1" -- ignoring
Unknown node in .ic card: "d0" -- ignoring
Unknown node in .ic card: "d1" -- ignoring
Per .tran options, skipping operating point for transient analysis.

Date: Fri Oct 15 16:16:17 2021
Total elapsed time: 0.845 seconds.

tnom = 27
temp = 27
method = modified trap
totiter = 59044
traniter = 59044
tranpoints = 20673
accept = 15519
rejected = 5154
matrix size = 48
fillins = 0
solver = Normal
Thread vector: 4.6/3.9[2] 2.9/2.8[1] 0.5/1.6[1] 0.2/1.3[1]  2592/500
Matrix Compiler1: 1.53 KB object code size  0.6/0.4/[0.2]
Matrix Compiler2: 2.76 KB object code size  0.4/0.5/[0.2]

