Circuit: * C:\Users\gauti\Documents\MATLAB\cmi_7b_2tone.asc

Unknown node in .ic card: "vp" -- ignoring
Unknown node in .ic card: "q0" -- ignoring
Unknown node in .ic card: "q1" -- ignoring
Unknown node in .ic card: "d0" -- ignoring
Unknown node in .ic card: "d1" -- ignoring
Per .tran options, skipping operating point for transient analysis.

Date: Sun Nov 21 09:50:51 2021
Total elapsed time: 0.527 seconds.

tnom = 27
temp = 27
method = modified trap
totiter = 51437
traniter = 51437
tranpoints = 18711
accept = 14177
rejected = 4534
matrix size = 46
fillins = 0
solver = Normal
Matrix Compiler1: 1.38 KB object code size  0.5/0.4/[0.1]
Matrix Compiler2: 2.61 KB object code size  0.4/0.7/[0.2]

