Circuit: * C:\Users\gauti\OneDrive\Documents\MATLAB\prbs15bit.asc

Unknown node in .ic card: "q0" -- ignoring
Unknown node in .ic card: "q1" -- ignoring
Unknown node in .ic card: "d0" -- ignoring
Unknown node in .ic card: "d1" -- ignoring
WARNING: Less than two connections to node VDD.  This node is used by V1.
WARNING: Less than two connections to node ~PRBS_OUT.  This node is used by A1.
WARNING: Less than two connections to node ~VCLK.  This node is used by A9.
Direct Newton iteration for .op point succeeded.

Date: Thu Jan 13 15:39:43 2022
Total elapsed time: 0.051 seconds.

tnom = 27
temp = 27
method = trap
totiter = 5
traniter = 0
tranpoints = 0
accept = 0
rejected = 0
matrix size = 24
fillins = 0
solver = Normal
Matrix Compiler1: 974 bytes object code size
Matrix Compiler2: 1.41 KB object code size
