Circuit: * C:\Users\gauti\Documents\MATLAB\PRBS14bit.asc

Unknown node in .ic card: "q0" -- ignoring
Unknown node in .ic card: "q1" -- ignoring
Unknown node in .ic card: "d0" -- ignoring
Unknown node in .ic card: "d1" -- ignoring
WARNING: Less than two connections to node VDD.  This node is used by V1.
WARNING: Less than two connections to node ~PRBS_OUT.  This node is used by A1.
WARNING: Less than two connections to node ~VCLK.  This node is used by A9.
Direct Newton iteration for .op point succeeded.

Date: Wed Oct 06 13:43:59 2021
Total elapsed time: 11.218 seconds.

tnom = 27
temp = 27
method = modified trap
totiter = 3087662
traniter = 3087657
tranpoints = 745936
accept = 560197
rejected = 185739
matrix size = 24
fillins = 0
solver = Normal
Matrix Compiler1: 974 bytes object code size  0.2/0.1/[0.0]
Matrix Compiler2: 1.41 KB object code size  0.1/0.2/[0.1]

