Circuit: * C:\Users\gauti\Documents\MATLAB\SnH1.asc

Warning: Multiple definitions of model "aons66402" Type: Vdmos1
Ignoring BSIM parameter XL
Ignoring BSIM parameter XW
Ignoring BSIM parameter XL
Ignoring BSIM parameter XW
Warning: Pd = 0 is less than W.
Warning: Ps = 0 is less than W.
Warning: Pd = 0 is less than W.
Warning: Ps = 0 is less than W.
Direct Newton iteration for .op point succeeded.

Date: Wed Oct 20 12:14:20 2021
Total elapsed time: 0.202 seconds.

tnom = 27
temp = 27
method = modified trap
totiter = 32182
traniter = 32155
tranpoints = 15460
accept = 12836
rejected = 2624
matrix size = 11
fillins = 0
solver = Normal
Matrix Compiler1: 486 bytes object code size  0.1/0.1/[0.0]
Matrix Compiler2: 859 bytes object code size  0.1/0.1/[0.1]

